<?xml version="1.0" encoding="UTF-8"?>

<net version="1.3" junctionCornerDetail="5" lefthand="true" limitTurnSpeed="5.50" xmlns:xsi="http://www.w3.org/2001/XMLSchema-instance" xsi:noNamespaceSchemaLocation="http://sumo.dlr.de/xsd/net_file.xsd">

    <location netOffset="0.00,0.00" convBoundary="-5.31,-3.61,1020.00,1020.00" origBoundary="-10000000000.00,-10000000000.00,10000000000.00,10000000000.00" projParameter="!"/>

    <edge id=":0_0" function="internal">
        <lane id=":0_0_0" index="0" speed="6.51" length="9.03" shape="505.20,499.60 504.85,502.05 503.80,503.80 502.05,504.85 499.60,505.20"/>
    </edge>
    <edge id=":0_1" function="internal">
        <lane id=":0_1_0" index="0" speed="7.33" length="11.73" shape="505.20,499.60 504.85,503.45 503.80,506.20 502.05,507.85 499.60,508.40"/>
    </edge>
    <edge id=":0_2" function="internal">
        <lane id=":0_2_0" index="0" speed="13.89" length="20.80" shape="505.20,499.60 505.20,520.40"/>
        <lane id=":0_2_1" index="1" speed="13.89" length="20.80" shape="508.40,499.60 508.40,520.40"/>
    </edge>
    <edge id=":0_4" function="internal">
        <lane id=":0_4_0" index="0" speed="9.84" length="21.99" shape="508.40,499.60 509.15,506.25 511.40,511.00 515.15,513.85 520.40,514.80"/>
    </edge>
    <edge id=":0_5" function="internal">
        <lane id=":0_5_0" index="0" speed="9.26" length="19.35" shape="508.40,499.60 509.15,504.85 511.40,508.60 515.15,510.85 520.40,511.60"/>
    </edge>
    <edge id=":0_6" function="internal">
        <lane id=":0_6_0" index="0" speed="6.51" length="9.03" shape="520.40,505.20 517.95,504.85 516.20,503.80 515.15,502.05 514.80,499.60"/>
    </edge>
    <edge id=":0_7" function="internal">
        <lane id=":0_7_0" index="0" speed="7.33" length="11.73" shape="520.40,505.20 516.55,504.85 513.80,503.80 512.15,502.05 511.60,499.60"/>
    </edge>
    <edge id=":0_8" function="internal">
        <lane id=":0_8_0" index="0" speed="13.89" length="20.80" shape="520.40,505.20 499.60,505.20"/>
        <lane id=":0_8_1" index="1" speed="13.89" length="20.80" shape="520.40,508.40 499.60,508.40"/>
    </edge>
    <edge id=":0_10" function="internal">
        <lane id=":0_10_0" index="0" speed="9.84" length="21.99" shape="520.40,508.40 513.75,509.15 509.00,511.40 506.15,515.15 505.20,520.40"/>
    </edge>
    <edge id=":0_11" function="internal">
        <lane id=":0_11_0" index="0" speed="9.26" length="19.35" shape="520.40,508.40 515.15,509.15 511.40,511.40 509.15,515.15 508.40,520.40"/>
    </edge>
    <edge id=":0_12" function="internal">
        <lane id=":0_12_0" index="0" speed="6.51" length="9.03" shape="514.80,520.40 515.15,517.95 516.20,516.20 517.95,515.15 520.40,514.80"/>
    </edge>
    <edge id=":0_13" function="internal">
        <lane id=":0_13_0" index="0" speed="7.33" length="11.73" shape="514.80,520.40 515.15,516.55 516.20,513.80 517.95,512.15 520.40,511.60"/>
    </edge>
    <edge id=":0_14" function="internal">
        <lane id=":0_14_0" index="0" speed="13.89" length="20.80" shape="514.80,520.40 514.80,499.60"/>
        <lane id=":0_14_1" index="1" speed="13.89" length="20.80" shape="511.60,520.40 511.60,499.60"/>
    </edge>
    <edge id=":0_16" function="internal">
        <lane id=":0_16_0" index="0" speed="9.84" length="21.99" shape="511.60,520.40 510.85,513.75 508.60,509.00 504.85,506.15 499.60,505.20"/>
    </edge>
    <edge id=":0_17" function="internal">
        <lane id=":0_17_0" index="0" speed="9.26" length="19.35" shape="511.60,520.40 510.85,515.15 508.60,511.40 504.85,509.15 499.60,508.40"/>
    </edge>
    <edge id=":0_18" function="internal">
        <lane id=":0_18_0" index="0" speed="6.51" length="9.03" shape="499.60,514.80 502.05,515.15 503.80,516.20 504.85,517.95 505.20,520.40"/>
    </edge>
    <edge id=":0_19" function="internal">
        <lane id=":0_19_0" index="0" speed="7.33" length="11.73" shape="499.60,514.80 503.45,515.15 506.20,516.20 507.85,517.95 508.40,520.40"/>
    </edge>
    <edge id=":0_20" function="internal">
        <lane id=":0_20_0" index="0" speed="13.89" length="20.80" shape="499.60,514.80 520.40,514.80"/>
        <lane id=":0_20_1" index="1" speed="13.89" length="20.80" shape="499.60,511.60 520.40,511.60"/>
    </edge>
    <edge id=":0_22" function="internal">
        <lane id=":0_22_0" index="0" speed="9.84" length="21.99" shape="499.60,511.60 506.25,510.85 511.00,508.60 513.85,504.85 514.80,499.60"/>
    </edge>
    <edge id=":0_23" function="internal">
        <lane id=":0_23_0" index="0" speed="9.26" length="19.35" shape="499.60,511.60 504.85,510.85 508.60,508.60 510.85,504.85 511.60,499.60"/>
    </edge>
    <edge id=":gneJ64_0" function="internal">
        <lane id=":gneJ64_0_0" index="0" speed="13.89" length="0.31" shape="10.15,505.20 9.84,505.20"/>
        <lane id=":gneJ64_0_1" index="1" speed="13.89" length="0.31" shape="10.15,508.40 9.85,508.40"/>
    </edge>
    <edge id=":gneJ64_2" function="internal">
        <lane id=":gneJ64_2_0" index="0" speed="13.89" length="0.29" shape="9.86,514.80 10.15,514.80"/>
        <lane id=":gneJ64_2_1" index="1" speed="13.89" length="0.29" shape="9.85,511.60 10.15,511.60"/>
    </edge>
    <edge id=":gneJ71_0" function="internal">
        <lane id=":gneJ71_0_0" index="0" speed="13.89" length="0.30" shape="505.20,9.85 505.20,10.15"/>
        <lane id=":gneJ71_0_1" index="1" speed="13.89" length="0.30" shape="508.40,9.85 508.40,10.15"/>
    </edge>
    <edge id=":gneJ71_2" function="internal">
        <lane id=":gneJ71_2_0" index="0" speed="13.89" length="0.30" shape="514.80,10.15 514.80,9.85"/>
        <lane id=":gneJ71_2_1" index="1" speed="13.89" length="0.30" shape="511.60,10.15 511.60,9.85"/>
    </edge>
    <edge id=":gneJ72_0" function="internal">
        <lane id=":gneJ72_0_0" index="0" speed="13.89" length="0.10" shape="1010.00,505.20 1010.00,505.20"/>
        <lane id=":gneJ72_0_1" index="1" speed="13.89" length="0.10" shape="1010.00,508.40 1010.00,508.40"/>
    </edge>
    <edge id=":gneJ72_2" function="internal">
        <lane id=":gneJ72_2_0" index="0" speed="13.89" length="0.10" shape="1010.00,514.80 1010.00,514.80"/>
        <lane id=":gneJ72_2_1" index="1" speed="13.89" length="0.10" shape="1010.00,511.60 1010.00,511.60"/>
    </edge>
    <edge id=":gneJ73_0" function="internal">
        <lane id=":gneJ73_0_0" index="0" speed="13.89" length="0.10" shape="505.20,1010.00 505.20,1010.00"/>
        <lane id=":gneJ73_0_1" index="1" speed="13.89" length="0.10" shape="508.40,1010.00 508.40,1010.00"/>
    </edge>
    <edge id=":gneJ73_2" function="internal">
        <lane id=":gneJ73_2_0" index="0" speed="13.89" length="0.10" shape="514.80,1010.00 514.80,1010.00"/>
        <lane id=":gneJ73_2_1" index="1" speed="13.89" length="0.10" shape="511.60,1010.00 511.60,1010.00"/>
    </edge>
    <edge id=":gneJ74_0" function="internal">
        <lane id=":gneJ74_0_0" index="0" speed="5.58" length="9.35" shape="-5.32,505.23 -8.91,507.64 -10.11,510.04 -8.91,512.44 -5.30,514.83"/>
        <lane id=":gneJ74_0_1" index="1" speed="3.65" length="9.35" shape="-5.31,508.43 -6.51,509.23 -6.91,510.03 -6.51,510.83 -5.31,511.63"/>
    </edge>
    <edge id=":gneJ75_0" function="internal">
        <lane id=":gneJ75_0_0" index="0" speed="5.58" length="9.35" shape="1020.00,514.80 1023.60,512.40 1024.80,510.00 1023.60,507.60 1020.00,505.20"/>
        <lane id=":gneJ75_0_1" index="1" speed="3.65" length="9.35" shape="1020.00,511.60 1021.20,510.80 1021.60,510.00 1021.20,509.20 1020.00,508.40"/>
    </edge>
    <edge id=":gneJ78_0" function="internal">
        <lane id=":gneJ78_0_0" index="0" speed="5.58" length="9.35" shape="514.79,-3.61 512.39,-7.21 509.99,-8.41 507.59,-7.21 505.19,-3.61"/>
        <lane id=":gneJ78_0_1" index="1" speed="3.65" length="9.35" shape="511.59,-3.61 510.79,-4.81 509.99,-5.21 509.19,-4.81 508.39,-3.61"/>
    </edge>
    <edge id=":gneJ79_0" function="internal">
        <lane id=":gneJ79_0_0" index="0" speed="5.58" length="9.35" shape="505.20,1020.00 507.60,1023.60 510.00,1024.80 512.40,1023.60 514.80,1020.00"/>
        <lane id=":gneJ79_0_1" index="1" speed="3.65" length="9.35" shape="508.40,1020.00 509.20,1021.20 510.00,1021.60 510.80,1021.20 511.60,1020.00"/>
    </edge>

    <edge id="1i" from="0" to="gneJ64" priority="-1">
        <lane id="1i_0" index="0" speed="13.89" length="489.45" shape="499.60,505.20 10.15,505.20"/>
        <lane id="1i_1" index="1" speed="13.89" length="489.45" shape="499.60,508.40 10.15,508.40"/>
    </edge>
    <edge id="1o" from="gneJ64" to="0" priority="-1">
        <lane id="1o_0" index="0" speed="13.89" length="489.45" shape="10.15,514.80 499.60,514.80"/>
        <lane id="1o_1" index="1" speed="13.89" length="489.45" shape="10.15,511.60 499.60,511.60"/>
    </edge>
    <edge id="2i" from="0" to="gneJ72" priority="-1">
        <lane id="2i_0" index="0" speed="13.89" length="489.60" shape="520.40,514.80 1010.00,514.80"/>
        <lane id="2i_1" index="1" speed="13.89" length="489.60" shape="520.40,511.60 1010.00,511.60"/>
    </edge>
    <edge id="2o" from="gneJ72" to="0" priority="-1">
        <lane id="2o_0" index="0" speed="13.89" length="489.60" shape="1010.00,505.20 520.40,505.20"/>
        <lane id="2o_1" index="1" speed="13.89" length="489.60" shape="1010.00,508.40 520.40,508.40"/>
    </edge>
    <edge id="3i" from="0" to="gneJ71" priority="-1">
        <lane id="3i_0" index="0" speed="13.89" length="489.45" shape="514.80,499.60 514.80,10.15"/>
        <lane id="3i_1" index="1" speed="13.89" length="489.45" shape="511.60,499.60 511.60,10.15"/>
    </edge>
    <edge id="3o" from="gneJ71" to="0" priority="-1">
        <lane id="3o_0" index="0" speed="13.89" length="489.45" shape="505.20,10.15 505.20,499.60"/>
        <lane id="3o_1" index="1" speed="13.89" length="489.45" shape="508.40,10.15 508.40,499.60"/>
    </edge>
    <edge id="4i" from="0" to="gneJ73" priority="-1">
        <lane id="4i_0" index="0" speed="13.89" length="489.60" shape="505.20,520.40 505.20,1010.00"/>
        <lane id="4i_1" index="1" speed="13.89" length="489.60" shape="508.40,520.40 508.40,1010.00"/>
    </edge>
    <edge id="4o" from="gneJ73" to="0" priority="-1">
        <lane id="4o_0" index="0" speed="13.89" length="489.60" shape="514.80,1010.00 514.80,520.40"/>
        <lane id="4o_1" index="1" speed="13.89" length="489.60" shape="511.60,1010.00 511.60,520.40"/>
    </edge>
    <edge id="51i" from="gneJ64" to="gneJ74" priority="-1">
        <lane id="51i_0" index="0" speed="13.89" length="15.16" shape="9.84,505.20 -5.32,505.23"/>
        <lane id="51i_1" index="1" speed="13.89" length="15.16" shape="9.85,508.40 -5.31,508.43"/>
    </edge>
    <edge id="51o" from="gneJ74" to="gneJ64" priority="-1">
        <lane id="51o_0" index="0" speed="13.89" length="15.16" shape="-5.30,514.83 9.86,514.80"/>
        <lane id="51o_1" index="1" speed="13.89" length="15.16" shape="-5.31,511.63 9.85,511.60"/>
    </edge>
    <edge id="52i" from="gneJ72" to="gneJ75" priority="-1">
        <lane id="52i_0" index="0" speed="13.89" length="10.00" shape="1010.00,514.80 1020.00,514.80"/>
        <lane id="52i_1" index="1" speed="13.89" length="10.00" shape="1010.00,511.60 1020.00,511.60"/>
    </edge>
    <edge id="52o" from="gneJ75" to="gneJ72" priority="-1">
        <lane id="52o_0" index="0" speed="13.89" length="10.00" shape="1020.00,505.20 1010.00,505.20"/>
        <lane id="52o_1" index="1" speed="13.89" length="10.00" shape="1020.00,508.40 1010.00,508.40"/>
    </edge>
    <edge id="53i" from="gneJ71" to="gneJ78" priority="-1">
        <lane id="53i_0" index="0" speed="13.89" length="13.46" shape="514.80,9.85 514.79,-3.61"/>
        <lane id="53i_1" index="1" speed="13.89" length="13.46" shape="511.60,9.85 511.59,-3.61"/>
    </edge>
    <edge id="53o" from="gneJ78" to="gneJ71" priority="-1">
        <lane id="53o_0" index="0" speed="13.89" length="13.46" shape="505.19,-3.61 505.20,9.85"/>
        <lane id="53o_1" index="1" speed="13.89" length="13.46" shape="508.39,-3.61 508.40,9.85"/>
    </edge>
    <edge id="54i" from="gneJ73" to="gneJ79" priority="-1">
        <lane id="54i_0" index="0" speed="13.89" length="10.00" shape="505.20,1010.00 505.20,1020.00"/>
        <lane id="54i_1" index="1" speed="13.89" length="10.00" shape="508.40,1010.00 508.40,1020.00"/>
    </edge>
    <edge id="54o" from="gneJ79" to="gneJ73" priority="-1">
        <lane id="54o_0" index="0" speed="13.89" length="10.00" shape="514.80,1020.00 514.80,1010.00"/>
        <lane id="54o_1" index="1" speed="13.89" length="10.00" shape="511.60,1020.00 511.60,1010.00"/>
    </edge>

    <tlLogic id="0" type="static" programID="1" offset="0">
        <phase duration="3"  state="rrrrrrGGyyyyyyrrrrrrrrrr"/>
        <phase duration="40" state="GGGGggGGrrrrrrrrrrrrrrrr"/>
        <phase duration="3"  state="GGGGyyyyrrrrrrrrrrrrrrrr"/>
        <phase duration="40" state="GGggrrrrrrrrGGGGrrrrrrrr"/>
        <phase duration="3"  state="yyyyrrrrrrrrGGGGrrrrrrrr"/>
        <phase duration="40" state="rrrrrrrrrrrrGGGGggGGrrrr"/>
        <phase duration="3"  state="rrrrrrrrrrrryyyyyyGGrrrr"/>
        <phase duration="40" state="GGrrrrrrrrrrrrrrrrGGGGgg"/>
        <phase duration="3"  state="yyrrrrrrrrrrrrrrrrGGGGyy"/>
        <phase duration="40" state="rrrrrrGGggrrrrrrrrGGGGrr"/>
        <phase duration="3"  state="rrrrrrGGggrrrrrrrryyyyrr"/>
        <phase duration="40" state="rrrrrrGGGGggGGrrrrrrrrrr"/>
    </tlLogic>

    <junction id="0" type="traffic_light" x="510.00" y="510.00" incLanes="3o_0 3o_1 2o_0 2o_1 4o_0 4o_1 1o_0 1o_1" intLanes=":0_0_0 :0_1_0 :0_2_0 :0_2_1 :0_4_0 :0_5_0 :0_6_0 :0_7_0 :0_8_0 :0_8_1 :0_10_0 :0_11_0 :0_12_0 :0_13_0 :0_14_0 :0_14_1 :0_16_0 :0_17_0 :0_18_0 :0_19_0 :0_20_0 :0_20_1 :0_22_0 :0_23_0" shape="503.60,499.60 516.40,499.60 516.84,501.82 517.40,502.60 518.18,503.16 519.18,503.49 520.40,503.60 520.40,516.40 518.18,516.84 517.40,517.40 516.84,518.18 516.51,519.18 516.40,520.40 503.60,520.40 503.16,518.18 502.60,517.40 501.82,516.84 500.82,516.51 499.60,516.40 499.60,503.60 501.82,503.16 502.60,502.60 503.16,501.82 503.49,500.82">
        <request index="0"  response="000000000000000000000000" foes="000000110000001100000000" cont="0"/>
        <request index="1"  response="000000000000000000000000" foes="000000110000001100000000" cont="0"/>
        <request index="2"  response="000000000000000000000000" foes="111111110000111100000000" cont="0"/>
        <request index="3"  response="000000000000000000000000" foes="111111110000111100000000" cont="0"/>
        <request index="4"  response="000000001111000000000000" foes="111100001111111100000000" cont="0"/>
        <request index="5"  response="000000001111000000000000" foes="111100001111111100000000" cont="0"/>
        <request index="6"  response="000000001100000000000000" foes="110000001100000000000000" cont="0"/>
        <request index="7"  response="000000001100000000000000" foes="110000001100000000000000" cont="0"/>
        <request index="8"  response="000000111100000000111111" foes="110000111100000000111111" cont="0"/>
        <request index="9"  response="000000111100000000111111" foes="110000111100000000111111" cont="0"/>
        <request index="10" response="001111111100000000111100" foes="001111111100000000111100" cont="0"/>
        <request index="11" response="001111111100000000111100" foes="001111111100000000111100" cont="0"/>
        <request index="12" response="000000000000000000000000" foes="001100000000000000110000" cont="0"/>
        <request index="13" response="000000000000000000000000" foes="001100000000000000110000" cont="0"/>
        <request index="14" response="000000000000000000000000" foes="111100000000111111110000" cont="0"/>
        <request index="15" response="000000000000000000000000" foes="111100000000111111110000" cont="0"/>
        <request index="16" response="000000000000000000001111" foes="111100000000111100001111" cont="0"/>
        <request index="17" response="000000000000000000001111" foes="111100000000111100001111" cont="0"/>
        <request index="18" response="000000000000000000001100" foes="000000000000110000001100" cont="0"/>
        <request index="19" response="000000000000000000001100" foes="000000000000110000001100" cont="0"/>
        <request index="20" response="000000111111000000111100" foes="000000111111110000111100" cont="0"/>
        <request index="21" response="000000111111000000111100" foes="000000111111110000111100" cont="0"/>
        <request index="22" response="000000111100001111111100" foes="000000111100001111111100" cont="0"/>
        <request index="23" response="000000111100001111111100" foes="000000111100001111111100" cont="0"/>
    </junction>
    <junction id="gneJ64" type="priority" x="10.00" y="510.00" incLanes="1i_0 1i_1 51o_0 51o_1" intLanes=":gneJ64_0_0 :gneJ64_0_1 :gneJ64_2_0 :gneJ64_2_1" shape="10.15,503.60 10.15,516.40 9.86,516.40 9.84,503.60">
        <request index="0" response="0000" foes="0000" cont="0"/>
        <request index="1" response="0000" foes="0000" cont="0"/>
        <request index="2" response="0000" foes="0000" cont="0"/>
        <request index="3" response="0000" foes="0000" cont="0"/>
    </junction>
    <junction id="gneJ71" type="priority" x="510.00" y="10.00" incLanes="53o_0 53o_1 3i_0 3i_1" intLanes=":gneJ71_0_0 :gneJ71_0_1 :gneJ71_2_0 :gneJ71_2_1" shape="503.60,9.85 516.40,9.85 516.40,10.15 503.60,10.15">
        <request index="0" response="0000" foes="0000" cont="0"/>
        <request index="1" response="0000" foes="0000" cont="0"/>
        <request index="2" response="0000" foes="0000" cont="0"/>
        <request index="3" response="0000" foes="0000" cont="0"/>
    </junction>
    <junction id="gneJ72" type="priority" x="1010.00" y="510.00" incLanes="52o_0 52o_1 2i_0 2i_1" intLanes=":gneJ72_0_0 :gneJ72_0_1 :gneJ72_2_0 :gneJ72_2_1" shape="1010.00,503.60 1010.00,516.40 1010.00,503.60">
        <request index="0" response="0000" foes="0000" cont="0"/>
        <request index="1" response="0000" foes="0000" cont="0"/>
        <request index="2" response="0000" foes="0000" cont="0"/>
        <request index="3" response="0000" foes="0000" cont="0"/>
    </junction>
    <junction id="gneJ73" type="priority" x="510.00" y="1010.00" incLanes="4i_0 4i_1 54o_0 54o_1" intLanes=":gneJ73_0_0 :gneJ73_0_1 :gneJ73_2_0 :gneJ73_2_1" shape="503.60,1010.00 516.40,1010.00 503.60,1010.00">
        <request index="0" response="0000" foes="0000" cont="0"/>
        <request index="1" response="0000" foes="0000" cont="0"/>
        <request index="2" response="0000" foes="0000" cont="0"/>
        <request index="3" response="0000" foes="0000" cont="0"/>
    </junction>
    <junction id="gneJ74" type="priority" x="-5.31" y="510.03" incLanes="51i_0 51i_1" intLanes=":gneJ74_0_0 :gneJ74_0_1" shape="-5.31,510.03 -5.32,503.63 -5.31,510.03">
        <request index="0" response="00" foes="00" cont="0"/>
        <request index="1" response="00" foes="00" cont="0"/>
    </junction>
    <junction id="gneJ75" type="priority" x="1020.00" y="510.00" incLanes="52i_0 52i_1" intLanes=":gneJ75_0_0 :gneJ75_0_1" shape="1020.00,510.00 1020.00,516.40 1020.00,510.00">
        <request index="0" response="00" foes="00" cont="0"/>
        <request index="1" response="00" foes="00" cont="0"/>
    </junction>
    <junction id="gneJ78" type="priority" x="509.99" y="-3.61" incLanes="53i_0 53i_1" intLanes=":gneJ78_0_0 :gneJ78_0_1" shape="509.99,-3.61 516.39,-3.61 509.99,-3.61">
        <request index="0" response="00" foes="00" cont="0"/>
        <request index="1" response="00" foes="00" cont="0"/>
    </junction>
    <junction id="gneJ79" type="priority" x="510.00" y="1020.00" incLanes="54i_0 54i_1" intLanes=":gneJ79_0_0 :gneJ79_0_1" shape="510.00,1020.00 503.60,1020.00 510.00,1020.00">
        <request index="0" response="00" foes="00" cont="0"/>
        <request index="1" response="00" foes="00" cont="0"/>
    </junction>

    <connection from="1i" to="51i" fromLane="0" toLane="0" via=":gneJ64_0_0" dir="s" state="M"/>
    <connection from="1i" to="51i" fromLane="1" toLane="1" via=":gneJ64_0_1" dir="s" state="M"/>
    <connection from="1o" to="4i" fromLane="0" toLane="0" via=":0_18_0" tl="0" linkIndex="18" dir="l" state="o"/>
    <connection from="1o" to="4i" fromLane="0" toLane="1" via=":0_19_0" tl="0" linkIndex="19" dir="l" state="o"/>
    <connection from="1o" to="2i" fromLane="0" toLane="0" via=":0_20_0" tl="0" linkIndex="20" dir="s" state="o"/>
    <connection from="1o" to="2i" fromLane="1" toLane="1" via=":0_20_1" tl="0" linkIndex="21" dir="s" state="o"/>
    <connection from="1o" to="3i" fromLane="1" toLane="0" via=":0_22_0" tl="0" linkIndex="22" dir="r" state="o"/>
    <connection from="1o" to="3i" fromLane="1" toLane="1" via=":0_23_0" tl="0" linkIndex="23" dir="r" state="o"/>
    <connection from="2i" to="52i" fromLane="0" toLane="0" via=":gneJ72_2_0" dir="s" state="M"/>
    <connection from="2i" to="52i" fromLane="1" toLane="1" via=":gneJ72_2_1" dir="s" state="M"/>
    <connection from="2o" to="3i" fromLane="0" toLane="0" via=":0_6_0" tl="0" linkIndex="6" dir="l" state="o"/>
    <connection from="2o" to="3i" fromLane="0" toLane="1" via=":0_7_0" tl="0" linkIndex="7" dir="l" state="o"/>
    <connection from="2o" to="1i" fromLane="0" toLane="0" via=":0_8_0" tl="0" linkIndex="8" dir="s" state="o"/>
    <connection from="2o" to="1i" fromLane="1" toLane="1" via=":0_8_1" tl="0" linkIndex="9" dir="s" state="o"/>
    <connection from="2o" to="4i" fromLane="1" toLane="0" via=":0_10_0" tl="0" linkIndex="10" dir="r" state="o"/>
    <connection from="2o" to="4i" fromLane="1" toLane="1" via=":0_11_0" tl="0" linkIndex="11" dir="r" state="o"/>
    <connection from="3i" to="53i" fromLane="0" toLane="0" via=":gneJ71_2_0" dir="s" state="M"/>
    <connection from="3i" to="53i" fromLane="1" toLane="1" via=":gneJ71_2_1" dir="s" state="M"/>
    <connection from="3o" to="1i" fromLane="0" toLane="0" via=":0_0_0" tl="0" linkIndex="0" dir="l" state="O"/>
    <connection from="3o" to="1i" fromLane="0" toLane="1" via=":0_1_0" tl="0" linkIndex="1" dir="l" state="O"/>
    <connection from="3o" to="4i" fromLane="0" toLane="0" via=":0_2_0" tl="0" linkIndex="2" dir="s" state="O"/>
    <connection from="3o" to="4i" fromLane="1" toLane="1" via=":0_2_1" tl="0" linkIndex="3" dir="s" state="O"/>
    <connection from="3o" to="2i" fromLane="1" toLane="0" via=":0_4_0" tl="0" linkIndex="4" dir="r" state="o"/>
    <connection from="3o" to="2i" fromLane="1" toLane="1" via=":0_5_0" tl="0" linkIndex="5" dir="r" state="o"/>
    <connection from="4i" to="54i" fromLane="0" toLane="0" via=":gneJ73_0_0" dir="s" state="M"/>
    <connection from="4i" to="54i" fromLane="1" toLane="1" via=":gneJ73_0_1" dir="s" state="M"/>
    <connection from="4o" to="2i" fromLane="0" toLane="0" via=":0_12_0" tl="0" linkIndex="12" dir="l" state="O"/>
    <connection from="4o" to="2i" fromLane="0" toLane="1" via=":0_13_0" tl="0" linkIndex="13" dir="l" state="O"/>
    <connection from="4o" to="3i" fromLane="0" toLane="0" via=":0_14_0" tl="0" linkIndex="14" dir="s" state="O"/>
    <connection from="4o" to="3i" fromLane="1" toLane="1" via=":0_14_1" tl="0" linkIndex="15" dir="s" state="O"/>
    <connection from="4o" to="1i" fromLane="1" toLane="0" via=":0_16_0" tl="0" linkIndex="16" dir="r" state="o"/>
    <connection from="4o" to="1i" fromLane="1" toLane="1" via=":0_17_0" tl="0" linkIndex="17" dir="r" state="o"/>
    <connection from="51i" to="51o" fromLane="0" toLane="0" via=":gneJ74_0_0" dir="T" state="M"/>
    <connection from="51i" to="51o" fromLane="1" toLane="1" via=":gneJ74_0_1" dir="T" state="M"/>
    <connection from="51o" to="1o" fromLane="0" toLane="0" via=":gneJ64_2_0" dir="s" state="M"/>
    <connection from="51o" to="1o" fromLane="1" toLane="1" via=":gneJ64_2_1" dir="s" state="M"/>
    <connection from="52i" to="52o" fromLane="0" toLane="0" via=":gneJ75_0_0" dir="T" state="M"/>
    <connection from="52i" to="52o" fromLane="1" toLane="1" via=":gneJ75_0_1" dir="T" state="M"/>
    <connection from="52o" to="2o" fromLane="0" toLane="0" via=":gneJ72_0_0" dir="s" state="M"/>
    <connection from="52o" to="2o" fromLane="1" toLane="1" via=":gneJ72_0_1" dir="s" state="M"/>
    <connection from="53i" to="53o" fromLane="0" toLane="0" via=":gneJ78_0_0" dir="T" state="M"/>
    <connection from="53i" to="53o" fromLane="1" toLane="1" via=":gneJ78_0_1" dir="T" state="M"/>
    <connection from="53o" to="3o" fromLane="0" toLane="0" via=":gneJ71_0_0" dir="s" state="M"/>
    <connection from="53o" to="3o" fromLane="1" toLane="1" via=":gneJ71_0_1" dir="s" state="M"/>
    <connection from="54i" to="54o" fromLane="0" toLane="0" via=":gneJ79_0_0" dir="T" state="M"/>
    <connection from="54i" to="54o" fromLane="1" toLane="1" via=":gneJ79_0_1" dir="T" state="M"/>
    <connection from="54o" to="4o" fromLane="0" toLane="0" via=":gneJ73_2_0" dir="s" state="M"/>
    <connection from="54o" to="4o" fromLane="1" toLane="1" via=":gneJ73_2_1" dir="s" state="M"/>

    <connection from=":0_0" to="1i" fromLane="0" toLane="0" dir="l" state="M"/>
    <connection from=":0_1" to="1i" fromLane="0" toLane="1" dir="l" state="M"/>
    <connection from=":0_2" to="4i" fromLane="0" toLane="0" dir="s" state="M"/>
    <connection from=":0_2" to="4i" fromLane="1" toLane="1" dir="s" state="M"/>
    <connection from=":0_4" to="2i" fromLane="0" toLane="0" dir="r" state="M"/>
    <connection from=":0_5" to="2i" fromLane="0" toLane="1" dir="r" state="M"/>
    <connection from=":0_6" to="3i" fromLane="0" toLane="0" dir="l" state="M"/>
    <connection from=":0_7" to="3i" fromLane="0" toLane="1" dir="l" state="M"/>
    <connection from=":0_8" to="1i" fromLane="0" toLane="0" dir="s" state="M"/>
    <connection from=":0_8" to="1i" fromLane="1" toLane="1" dir="s" state="M"/>
    <connection from=":0_10" to="4i" fromLane="0" toLane="0" dir="r" state="M"/>
    <connection from=":0_11" to="4i" fromLane="0" toLane="1" dir="r" state="M"/>
    <connection from=":0_12" to="2i" fromLane="0" toLane="0" dir="l" state="M"/>
    <connection from=":0_13" to="2i" fromLane="0" toLane="1" dir="l" state="M"/>
    <connection from=":0_14" to="3i" fromLane="0" toLane="0" dir="s" state="M"/>
    <connection from=":0_14" to="3i" fromLane="1" toLane="1" dir="s" state="M"/>
    <connection from=":0_16" to="1i" fromLane="0" toLane="0" dir="r" state="M"/>
    <connection from=":0_17" to="1i" fromLane="0" toLane="1" dir="r" state="M"/>
    <connection from=":0_18" to="4i" fromLane="0" toLane="0" dir="l" state="M"/>
    <connection from=":0_19" to="4i" fromLane="0" toLane="1" dir="l" state="M"/>
    <connection from=":0_20" to="2i" fromLane="0" toLane="0" dir="s" state="M"/>
    <connection from=":0_20" to="2i" fromLane="1" toLane="1" dir="s" state="M"/>
    <connection from=":0_22" to="3i" fromLane="0" toLane="0" dir="r" state="M"/>
    <connection from=":0_23" to="3i" fromLane="0" toLane="1" dir="r" state="M"/>
    <connection from=":gneJ64_0" to="51i" fromLane="0" toLane="0" dir="s" state="M"/>
    <connection from=":gneJ64_0" to="51i" fromLane="1" toLane="1" dir="s" state="M"/>
    <connection from=":gneJ64_2" to="1o" fromLane="0" toLane="0" dir="s" state="M"/>
    <connection from=":gneJ64_2" to="1o" fromLane="1" toLane="1" dir="s" state="M"/>
    <connection from=":gneJ71_0" to="3o" fromLane="0" toLane="0" dir="s" state="M"/>
    <connection from=":gneJ71_0" to="3o" fromLane="1" toLane="1" dir="s" state="M"/>
    <connection from=":gneJ71_2" to="53i" fromLane="0" toLane="0" dir="s" state="M"/>
    <connection from=":gneJ71_2" to="53i" fromLane="1" toLane="1" dir="s" state="M"/>
    <connection from=":gneJ72_0" to="2o" fromLane="0" toLane="0" dir="s" state="M"/>
    <connection from=":gneJ72_0" to="2o" fromLane="1" toLane="1" dir="s" state="M"/>
    <connection from=":gneJ72_2" to="52i" fromLane="0" toLane="0" dir="s" state="M"/>
    <connection from=":gneJ72_2" to="52i" fromLane="1" toLane="1" dir="s" state="M"/>
    <connection from=":gneJ73_0" to="54i" fromLane="0" toLane="0" dir="s" state="M"/>
    <connection from=":gneJ73_0" to="54i" fromLane="1" toLane="1" dir="s" state="M"/>
    <connection from=":gneJ73_2" to="4o" fromLane="0" toLane="0" dir="s" state="M"/>
    <connection from=":gneJ73_2" to="4o" fromLane="1" toLane="1" dir="s" state="M"/>
    <connection from=":gneJ74_0" to="51o" fromLane="0" toLane="0" dir="T" state="M"/>
    <connection from=":gneJ74_0" to="51o" fromLane="1" toLane="1" dir="T" state="M"/>
    <connection from=":gneJ75_0" to="52o" fromLane="0" toLane="0" dir="T" state="M"/>
    <connection from=":gneJ75_0" to="52o" fromLane="1" toLane="1" dir="T" state="M"/>
    <connection from=":gneJ78_0" to="53o" fromLane="0" toLane="0" dir="T" state="M"/>
    <connection from=":gneJ78_0" to="53o" fromLane="1" toLane="1" dir="T" state="M"/>
    <connection from=":gneJ79_0" to="54o" fromLane="0" toLane="0" dir="T" state="M"/>
    <connection from=":gneJ79_0" to="54o" fromLane="1" toLane="1" dir="T" state="M"/>

</net>
